tests/data/power_flow/dummy-test-batch-independent-not-cacheable/input.json
{
  "attributes": {},
  "data": {
    "line": [
      {
        "c1": 0,
        "from_node": 1,
        "from_status": 1,
        "i_n": 1000,
        "id": 4,
        "r1": 0,
        "tan1": 0,
        "to_node": 2,
        "to_status": 1,
        "x1": 1
      }
    ],
    "node": [
      {
        "id": 1,
        "u_rated": 10
      },
      {
        "id": 2,
        "u_rated": 10
      }
    ],
    "source": [
      {
        "id": 6,
        "node": 1,
        "rx_ratio": 0,
        "sk": 100,
        "status": 1,
        "u_ref": 1
      }
    ],
    "sym_load": [
      {
        "id": 7,
        "node": 2,
        "p_specified": 0,
        "q_specified": 0,
        "status": 1,
        "type": 2
      },
      {
        "id": 8,
        "node": 2,
        "p_specified": 0,
        "q_specified": 0,
        "status": 1,
        "type": 2
      }
    ]
  },
  "is_batch": false,
  "type": "input",
  "version": "1.0"
}